192007
  -OEChem-05292409072D

 57 59  0     1  0  0  0  0  0999 V2000
    6.8441   -2.3362    0.0000 O   0  0  0  0  0  0  0  0  0  0  0  0
    4.2297    0.1984    0.0000 O   0  0  0  0  0  0  0  0  0  0  0  0
    2.3121   -1.3115    0.0000 O   0  0  0  0  0  0  0  0  0  0  0  0
    5.0903    0.6953    0.0000 O   0  0  0  0  0  0  0  0  0  0  0  0
    5.1121   -2.3362    0.0000 C   0  0  2  0  0  0  0  0  0  0  0  0
    5.1121   -1.3362    0.0000 C   0  0  1  0  0  0  0  0  0  0  0  0
    4.2181   -0.8015    0.0000 C   0  0  1  0  0  0  0  0  0  0  0  0
    5.9781   -2.8362    0.0000 C   0  0  0  0  0  0  0  0  0  0  0  0
    3.3121   -1.3154    0.0000 C   0  0  2  0  0  0  0  0  0  0  0  0
    4.2181   -2.8708    0.0000 C   0  0  0  0  0  0  0  0  0  0  0  0
    3.3121   -2.3570    0.0000 C   0  0  0  0  0  0  0  0  0  0  0  0
    5.9781   -0.8362    0.0000 C   0  0  0  0  0  0  0  0  0  0  0  0
    6.8441   -1.3362    0.0000 C   0  0  0  0  0  0  0  0  0  0  0  0
    6.4781   -3.7022    0.0000 C   0  0  0  0  0  0  0  0  0  0  0  0
    5.4781   -3.7022    0.0000 C   0  0  0  0  0  0  0  0  0  0  0  0
    2.8154   -0.4474    0.0000 C   0  0  0  0  0  0  0  0  0  0  0  0
    5.9620    0.2053    0.0000 C   0  0  0  0  0  0  0  0  0  0  0  0
    7.7541   -0.8293    0.0000 C   0  0  0  0  0  0  0  0  0  0  0  0
    7.7622    0.2123    0.0000 C   0  0  0  0  0  0  0  0  0  0  0  0
    6.8601    0.7331    0.0000 C   0  0  0  0  0  0  0  0  0  0  0  0
    8.6301    0.7089    0.0000 C   0  0  0  0  0  0  0  0  0  0  0  0
    8.6340    1.7089    0.0000 C   0  0  0  0  0  0  0  0  0  0  0  0
    9.5019    2.2056    0.0000 C   0  0  0  0  0  0  0  0  0  0  0  0
    9.5058    3.2056    0.0000 C   0  0  0  0  0  0  0  0  0  0  0  0
   10.3737    3.7022    0.0000 C   0  0  0  0  0  0  0  0  0  0  0  0
    5.1186   -3.1862    0.0000 H   0  0  0  0  0  0  0  0  0  0  0  0
    5.1186   -0.4862    0.0000 H   0  0  0  0  0  0  0  0  0  0  0  0
    4.7592   -0.4988    0.0000 H   0  0  0  0  0  0  0  0  0  0  0  0
    3.8245   -3.3499    0.0000 H   0  0  0  0  0  0  0  0  0  0  0  0
    4.6227   -3.3406    0.0000 H   0  0  0  0  0  0  0  0  0  0  0  0
    2.7012   -2.2509    0.0000 H   0  0  0  0  0  0  0  0  0  0  0  0
    3.1030   -2.9407    0.0000 H   0  0  0  0  0  0  0  0  0  0  0  0
    5.9412   -4.0122    0.0000 H   0  0  0  0  0  0  0  0  0  0  0  0
    6.7881   -4.2392    0.0000 H   0  0  0  0  0  0  0  0  0  0  0  0
    7.0150   -3.3922    0.0000 H   0  0  0  0  0  0  0  0  0  0  0  0
    4.9412   -3.3922    0.0000 H   0  0  0  0  0  0  0  0  0  0  0  0
    5.1681   -4.2392    0.0000 H   0  0  0  0  0  0  0  0  0  0  0  0
    6.0150   -4.0122    0.0000 H   0  0  0  0  0  0  0  0  0  0  0  0
    3.3535   -0.1395    0.0000 H   0  0  0  0  0  0  0  0  0  0  0  0
    2.5075    0.0907    0.0000 H   0  0  0  0  0  0  0  0  0  0  0  0
    2.2773   -0.7554    0.0000 H   0  0  0  0  0  0  0  0  0  0  0  0
    3.6964    0.5146    0.0000 H   0  0  0  0  0  0  0  0  0  0  0  0
    2.0000   -1.8473    0.0000 H   0  0  0  0  0  0  0  0  0  0  0  0
    8.2874   -1.1455    0.0000 H   0  0  0  0  0  0  0  0  0  0  0  0
    6.8577    1.3531    0.0000 H   0  0  0  0  0  0  0  0  0  0  0  0
    8.8399    0.1255    0.0000 H   0  0  0  0  0  0  0  0  0  0  0  0
    9.2411    0.8142    0.0000 H   0  0  0  0  0  0  0  0  0  0  0  0
    5.0831    1.3152    0.0000 H   0  0  0  0  0  0  0  0  0  0  0  0
    8.4241    2.2923    0.0000 H   0  0  0  0  0  0  0  0  0  0  0  0
    8.0230    1.6036    0.0000 H   0  0  0  0  0  0  0  0  0  0  0  0
    9.7117    1.6221    0.0000 H   0  0  0  0  0  0  0  0  0  0  0  0
   10.1129    2.3109    0.0000 H   0  0  0  0  0  0  0  0  0  0  0  0
    9.2960    3.7890    0.0000 H   0  0  0  0  0  0  0  0  0  0  0  0
    8.8948    3.1002    0.0000 H   0  0  0  0  0  0  0  0  0  0  0  0
   10.6816    3.1641    0.0000 H   0  0  0  0  0  0  0  0  0  0  0  0
   10.9118    4.0101    0.0000 H   0  0  0  0  0  0  0  0  0  0  0  0
   10.0658    4.2403    0.0000 H   0  0  0  0  0  0  0  0  0  0  0  0
  1  8  1  0  0  0  0
  1 13  1  0  0  0  0
  7  2  1  1  0  0  0
  2 42  1  0  0  0  0
  9  3  1  6  0  0  0
  3 43  1  0  0  0  0
  4 17  1  0  0  0  0
  4 48  1  0  0  0  0
  5  6  1  0  0  0  0
  5  8  1  0  0  0  0
  5 10  1  0  0  0  0
  5 26  1  1  0  0  0
  6  7  1  0  0  0  0
  6 12  1  0  0  0  0
  6 27  1  6  0  0  0
  7  9  1  0  0  0  0
  7 28  1  0  0  0  0
  8 14  1  0  0  0  0
  8 15  1  0  0  0  0
  9 11  1  0  0  0  0
  9 16  1  0  0  0  0
 10 11  1  0  0  0  0
 10 29  1  0  0  0  0
 10 30  1  0  0  0  0
 11 31  1  0  0  0  0
 11 32  1  0  0  0  0
 12 13  1  0  0  0  0
 12 17  2  0  0  0  0
 13 18  2  0  0  0  0
 14 33  1  0  0  0  0
 14 34  1  0  0  0  0
 14 35  1  0  0  0  0
 15 36  1  0  0  0  0
 15 37  1  0  0  0  0
 15 38  1  0  0  0  0
 16 39  1  0  0  0  0
 16 40  1  0  0  0  0
 16 41  1  0  0  0  0
 17 20  1  0  0  0  0
 18 19  1  0  0  0  0
 18 44  1  0  0  0  0
 19 20  2  0  0  0  0
 19 21  1  0  0  0  0
 20 45  1  0  0  0  0
 21 22  1  0  0  0  0
 21 46  1  0  0  0  0
 21 47  1  0  0  0  0
 22 23  1  0  0  0  0
 22 49  1  0  0  0  0
 22 50  1  0  0  0  0
 23 24  1  0  0  0  0
 23 51  1  0  0  0  0
 23 52  1  0  0  0  0
 24 25  1  0  0  0  0
 24 53  1  0  0  0  0
 24 54  1  0  0  0  0
 25 55  1  0  0  0  0
 25 56  1  0  0  0  0
 25 57  1  0  0  0  0
M  END
> <PUBCHEM_COMPOUND_CID>
192007

> <PUBCHEM_COMPOUND_CANONICALIZED>
1

> <PUBCHEM_CACTVS_COMPLEXITY>
465

> <PUBCHEM_CACTVS_HBOND_ACCEPTOR>
4

> <PUBCHEM_CACTVS_HBOND_DONOR>
3

> <PUBCHEM_CACTVS_ROTATABLE_BOND>
4

> <PUBCHEM_CACTVS_SUBSKEYS>
AAADcfB4OAAAAAAAAAAAAAAAAAAAAAAAAAA0YIAAAAAAAACRAAAAGgAACAAADVSgmAIyBoAABgCAAiBCAAACCAAgIAAAiAAGCIgNNyKGMRqCeCClwBUJuAfA4PwOwAABCAAIAADAAAYQADCAAAAAAAAAAA==

> <PUBCHEM_IUPAC_OPENEYE_NAME>
(6aR,9S,10S,10aR)-6,6,9-trimethyl-3-pentyl-7,8,10,10a-tetrahydro-6aH-benzo[c]chromene-1,9,10-triol

> <PUBCHEM_IUPAC_CAS_NAME>
(6aR,9S,10S,10aR)-6,6,9-trimethyl-3-pentyl-7,8,10,10a-tetrahydro-6aH-benzo[c][1]benzopyran-1,9,10-triol

> <PUBCHEM_IUPAC_NAME_MARKUP>
(6<I>a</I><I>R</I>,9<I>S</I>,10<I>S</I>,10<I>a</I><I>R</I>)-6,6,9-trimethyl-3-pentyl-7,8,10,10<I>a</I>-tetrahydro-6<I>a</I><I>H</I>-benzo[c]chromene-1,9,10-triol

> <PUBCHEM_IUPAC_NAME>
(6aR,9S,10S,10aR)-6,6,9-trimethyl-3-pentyl-7,8,10,10a-tetrahydro-6aH-benzo[c]chromene-1,9,10-triol

> <PUBCHEM_IUPAC_SYSTEMATIC_NAME>
(6aR,9S,10S,10aR)-6,6,9-trimethyl-3-pentyl-7,8,10,10a-tetrahydro-6aH-benzo[c]chromene-1,9,10-triol

> <PUBCHEM_IUPAC_TRADITIONAL_NAME>
(6aR,9S,10S,10aR)-3-amyl-6,6,9-trimethyl-7,8,10,10a-tetrahydro-6aH-benzo[c]chromene-1,9,10-triol

> <PUBCHEM_IUPAC_INCHI>
InChI=1S/C21H32O4/c1-5-6-7-8-13-11-15(22)18-16(12-13)25-20(2,3)14-9-10-21(4,24)19(23)17(14)18/h11-12,14,17,19,22-24H,5-10H2,1-4H3/t14-,17-,19+,21+/m1/s1

> <PUBCHEM_IUPAC_INCHIKEY>
TZGCTXUTNDNTTE-DYZHCLJRSA-N

> <PUBCHEM_XLOGP3_AA>
4.1

> <PUBCHEM_EXACT_MASS>
348.23005950

> <PUBCHEM_MOLECULAR_FORMULA>
C21H32O4

> <PUBCHEM_MOLECULAR_WEIGHT>
348.5

> <PUBCHEM_OPENEYE_CAN_SMILES>
CCCCCC1=CC(=C2C3C(CCC(C3O)(C)O)C(OC2=C1)(C)C)O

> <PUBCHEM_OPENEYE_ISO_SMILES>
CCCCCC1=CC(=C2[C@H]3[C@@H](CC[C@]([C@H]3O)(C)O)C(OC2=C1)(C)C)O

> <PUBCHEM_CACTVS_TPSA>
69.9

> <PUBCHEM_MONOISOTOPIC_WEIGHT>
348.23005950

> <PUBCHEM_TOTAL_CHARGE>
0

> <PUBCHEM_HEAVY_ATOM_COUNT>
25

> <PUBCHEM_ATOM_DEF_STEREO_COUNT>
4

> <PUBCHEM_ATOM_UDEF_STEREO_COUNT>
0

> <PUBCHEM_BOND_DEF_STEREO_COUNT>
0

> <PUBCHEM_BOND_UDEF_STEREO_COUNT>
0

> <PUBCHEM_ISOTOPIC_ATOM_COUNT>
0

> <PUBCHEM_COMPONENT_COUNT>
1

> <PUBCHEM_CACTVS_TAUTO_COUNT>
-1

> <PUBCHEM_COORDINATE_TYPE>
1
5
255

> <PUBCHEM_BONDANNOTATIONS>
12  13  8
12  17  8
13  18  8
17  20  8
18  19  8
19  20  8
7  2  5
9  3  6
5  26  5
6  27  6

$$$$
